Version 4
SHEET 1 880 680
WIRE 208 80 144 80
WIRE 528 80 272 80
WIRE 528 144 528 80
WIRE 544 144 528 144
WIRE 144 160 144 80
WIRE 144 160 128 160
WIRE 384 160 144 160
WIRE 544 160 480 160
WIRE 688 160 608 160
WIRE 544 176 512 176
WIRE 272 192 272 80
WIRE 288 192 272 192
WIRE 640 192 608 192
WIRE 288 208 256 208
WIRE 384 208 352 208
WIRE 640 208 640 192
WIRE 688 208 640 208
WIRE 208 272 208 96
WIRE 208 272 64 272
WIRE 288 272 208 272
WIRE 304 272 304 256
WIRE 304 272 288 272
WIRE 384 272 384 240
WIRE 384 272 304 272
WIRE 560 272 560 208
WIRE 560 272 384 272
WIRE 512 336 512 176
WIRE 512 336 496 336
WIRE 176 368 128 368
WIRE 256 384 256 208
WIRE 176 400 128 400
WIRE 256 480 256 464
WIRE 288 480 288 272
WIRE 288 480 256 480
FLAG 688 160 High
IOPIN 688 160 Out
FLAG 688 208 Low
IOPIN 688 208 Out
FLAG 176 368 Vin-
FLAG 176 400 Vin+
FLAG 128 368 Vref
IOPIN 128 368 In
FLAG 128 400 Sense
IOPIN 128 400 In
FLAG 64 272 COM
IOPIN 64 272 In
FLAG 128 160 CLK
IOPIN 128 160 In
FLAG 496 336 Set
IOPIN 496 336 In
SYMBOL Digital\\srflop 432 112 R0
WINDOW 3 -40 28 Left 2
SYMATTR Value Vhigh=5
SYMATTR InstName A1
SYMBOL bv 256 368 R0
WINDOW 3 23 62 Left 2
SYMATTR Value V=(IF(V(Vin+) > V(Vin-), 5, 0))
SYMATTR InstName B1
SYMBOL Digital\\and 576 112 R0
WINDOW 3 -28 46 Left 2
SYMATTR Value Vhigh=5
SYMATTR InstName A3
SYMBOL Digital\\inv 208 16 R0
WINDOW 3 -18 77 Left 2
SYMATTR Value Vhigh=5
SYMATTR InstName A2
SYMBOL Digital\\and 320 160 R0
WINDOW 3 -26 44 Left 2
SYMATTR Value Vhigh=5
SYMATTR InstName A4
