Version 4
SHEET 1 880 680
WIRE -752 -176 -800 -176
WIRE -432 -176 -576 -176
WIRE -752 -144 -848 -144
WIRE -528 -128 -576 -128
WIRE -752 -112 -848 -112
WIRE 0 -112 0 -128
WIRE 384 -112 0 -112
WIRE -528 -96 -576 -96
WIRE 384 -96 384 -112
WIRE -656 -64 -656 -80
WIRE 0 0 0 -112
WIRE 32 0 0 0
WIRE 304 0 192 0
WIRE -176 48 -272 48
WIRE -48 48 -96 48
WIRE 32 48 -48 48
WIRE 304 48 192 48
WIRE -272 80 -272 48
WIRE -48 80 -48 48
WIRE 32 96 0 96
WIRE 304 96 192 96
WIRE -272 192 -272 160
WIRE -176 192 -272 192
WIRE -48 192 -48 160
WIRE -48 192 -96 192
WIRE 0 192 0 96
WIRE 0 192 -48 192
WIRE 464 192 0 192
WIRE 0 256 0 192
WIRE 32 256 0 256
WIRE 304 256 192 256
WIRE -48 304 -272 304
WIRE 32 304 -48 304
WIRE 304 304 192 304
WIRE -48 320 -48 304
WIRE -272 336 -272 304
WIRE 32 352 0 352
WIRE 304 352 192 352
WIRE 0 400 0 352
WIRE 384 400 384 -32
WIRE 384 400 0 400
WIRE 544 400 384 400
WIRE -48 416 -48 400
WIRE -48 416 -80 416
WIRE 0 416 0 400
WIRE 0 416 -48 416
WIRE -272 432 -272 416
WIRE -80 432 -80 416
WIRE -80 512 -80 496
WIRE 0 512 0 496
FLAG 464 192 Vout
IOPIN 464 192 Out
FLAG 544 400 SenseOut
IOPIN 544 400 Out
FLAG 304 0 Tch
IOPIN 304 0 Out
FLAG 304 256 Tcl
IOPIN 304 256 Out
FLAG 304 48 Tjh
IOPIN 304 48 Out
FLAG 304 304 Tjl
IOPIN 304 304 Out
FLAG -528 -128 High
FLAG -528 -96 Low
FLAG -656 -64 COM
IOPIN -656 -64 In
FLAG -272 432 COM
IOPIN -272 432 In
FLAG 0 512 COM
IOPIN 0 512 In
FLAG -80 512 COM
IOPIN -80 512 In
FLAG 0 -208 +24V
IOPIN 0 -208 In
FLAG -800 -176 SenseIn
IOPIN -800 -176 In
FLAG -432 -176 Set
IOPIN -432 -176 In
FLAG 304 96 Pup
IOPIN 304 96 Out
FLAG 304 352 Pdown
IOPIN 304 352 Out
FLAG -848 -112 CLK
IOPIN -848 -112 In
FLAG -848 -144 Vref
IOPIN -848 -144 In
SYMBOL res -80 32 R90
WINDOW 0 0 56 VBottom 2
WINDOW 3 32 56 VTop 2
SYMATTR InstName R1
SYMATTR Value 100R
SYMBOL res -32 176 R180
WINDOW 0 36 76 Left 2
WINDOW 3 36 40 Left 2
SYMATTR InstName R2
SYMATTR Value 500k
SYMBOL res -80 176 R90
WINDOW 0 0 56 VBottom 2
WINDOW 3 32 56 VTop 2
SYMATTR InstName R3
SYMATTR Value 4R
SYMBOL res -16 -224 R0
SYMATTR InstName R4
SYMATTR Value 0.0037R
SYMBOL res -16 400 R0
SYMATTR InstName R5
SYMATTR Value 0.008R
SYMBOL cap 368 -96 R0
SYMATTR InstName C1
SYMATTR Value 0.47µF
SYMBOL res -32 416 R180
WINDOW 0 36 76 Left 2
WINDOW 3 36 40 Left 2
SYMATTR InstName R6
SYMATTR Value 500k
SYMBOL schottky -64 496 R180
WINDOW 0 24 64 Left 2
WINDOW 3 24 0 Left 2
SYMATTR InstName D1
SYMATTR Value MBR0520L
SYMATTR Description Diode
SYMATTR Type diode
SYMBOL IRFB4615PBF_therm 144 48 R0
WINDOW 39 -31 30 Left 2
SYMATTR SpiceLine Tambient=Tup
SYMATTR InstName X1
SYMBOL IRFB4615PBF_therm 144 304 R0
WINDOW 39 -28 26 Left 2
SYMATTR SpiceLine Tambient=Tdown
SYMATTR InstName X2
SYMBOL feedback -672 -144 R0
WINDOW 0 8 -56 Bottom 2
SYMATTR InstName X3
SYMBOL bv -272 64 R0
WINDOW 3 -697 117 Left 2
SYMATTR Value V=(IF(delay(V(High)-V(COM), 400n)<0.1, 0,  (V(High)-V(COM))*3))
SYMATTR InstName B1
SYMBOL bv -272 320 R0
WINDOW 3 -686 90 Left 2
SYMATTR Value V=(IF(delay(V(Low)-V(COM), 400n)<0.1, 0,  (V(Low)-V(COM))*3))
SYMATTR InstName B2
TEXT -80 -40 Left 2 ;VT8
TEXT -128 264 Left 2 ;VT9
TEXT -912 -272 Left 2 !.param Tup=25
TEXT -912 -248 Left 2 !.param Tdown=25
