Version 4
SHEET 1 880 680
WIRE 192 -48 16 -48
WIRE 176 48 16 48
WIRE 192 48 192 -48
WIRE 208 48 192 48
WIRE 176 80 176 48
WIRE 208 80 176 80
WIRE 400 96 352 96
WIRE 208 112 176 112
WIRE 176 144 176 112
WIRE 176 144 16 144
WIRE 208 144 192 144
WIRE 192 224 192 144
WIRE 192 224 16 224
FLAG 16 -48 Tvt8
FLAG 16 48 Tvt2
FLAG 16 144 Tvt9
FLAG 16 224 Tvt3
FLAG 400 96 Trad
FLAG -608 16 Tvt8
FLAG -336 16 Tvt2
FLAG -464 16 Tvt9
FLAG -176 16 Tvt3
FLAG -608 96 0
FLAG -336 96 0
FLAG -464 96 0
FLAG -176 96 0
SYMBOL Radiator 272 96 R0
WINDOW 39 -36 102 Bottom 2
SYMATTR SpiceLine Tambient=40 Tinit=rad_temp Rcontact=1.88
SYMATTR InstName X1
SYMBOL bi -608 96 R180
WINDOW 0 24 80 Left 2
WINDOW 3 -83 31 Left 2
SYMATTR InstName B1
SYMATTR Value I={vt8_power}
SYMBOL bi -464 96 R180
WINDOW 0 24 80 Left 2
WINDOW 3 -109 13 Left 2
SYMATTR InstName B2
SYMATTR Value I={vt9_power}
SYMBOL bi -336 96 R180
WINDOW 0 24 80 Left 2
WINDOW 3 -106 42 Left 2
SYMATTR InstName B3
SYMATTR Value I={vt2_power}
SYMBOL bi -176 96 R180
WINDOW 0 24 80 Left 2
WINDOW 3 -98 19 Left 2
SYMATTR InstName B4
SYMATTR Value I={vt8_power}
TEXT -376 -64 Left 2 !.param rad_temp=40.0001
TEXT -696 224 Left 2 !.tran 100s
TEXT -696 248 Left 2 !.meas vt8_temp find V(Tvt8) at 100s
TEXT -696 272 Left 2 !.meas vt9_temp find V(Tvt9) at 100s
TEXT -696 296 Left 2 !.meas vt2_temp find V(Tvt2) at 100s
TEXT -696 320 Left 2 !.meas vt3_temp find V(Tvt3) at 100s
TEXT -696 344 Left 2 !.meas rad_temp find V(Trad) at 100s
TEXT -696 392 Left 2 !.param vt8_power=2.56052
TEXT -696 416 Left 2 !.param vt9_power=1.94076
TEXT -696 440 Left 2 !.param vt2_power=1.27918e-005
TEXT -696 464 Left 2 !.param vt3_power=3.37462
